rodar_simulacao.py/circuito_principal.DSS
clear
Set DefaultBaseFrequency=60

! IEEE 4-bus test case    D-Y Stepdown Balanced
! Based on script developed by Alan Dunn and Steve Sparling

new circuit.4busDYBal    basekV=12.47 phases=3 
! **** HAVE TO STIFFEN THE SOURCE UP A LITTLE; THE TEST CASE ASSUMES AN INFINITE BUS
~ mvasc3=200000 200000

set earthmodel=carson

! **** DEFINE WIRE DATA 
new wiredata.conductor Runits=mi Rac=0.306 GMRunits=ft GMRac=0.0244 Radunits=in Diam=0.721 normamps=530
new wiredata.neutral    Runits=mi Rac=0.592 GMRunits=ft GMRac=0.00814 Radunits=in Diam=0.563 normamps=340

! **** DEFINE LINE GEOMETRY; REDUCE OUT THE NEUTRAL
new linegeometry.4wire nconds=4 nphases=3 reduce=yes 
~ cond=1 wire=conductor units=ft x=-4  h=28 
~ cond=2 wire=conductor units=ft x=-1.5 h=28 
~ cond=3 wire=conductor units=ft x=3    h=28 
~ cond=4 wire=neutral    units=ft x=0    h=24 

! **** 12.47 KV LINE
new line.line1 geometry=4wire length=2000 units=ft bus1=sourcebus bus2=n2

! **** 3-PHASE STEP-DOWN TRANSFORMER 12.47/4.16 KV Delta-Ygrd
new transformer.t1 xhl=6
~ wdg=1 bus=n2 conn=delta kV=12.47 kVA=6000 %r=0.5 
~ wdg=2 bus=n3 conn=wye    kV=4.16  kVA=6000 %r=0.5 

! **** 4.16 KV LINE
new line.line2 bus1=n3 bus2=n4 geometry=4wire length=2500 units=ft  

! **** WYE-CONNECTED 4.16 KV LOAD
new load.load1 phases=3 bus1=n4 conn=wye kV=4.16 kW=5400 pf=0.9  model=1
! **** HAVE TO ALLOW P, Q TO REMAIN CONSTANT TO ABOUT .79 PU -- THIS IS ASSUMED IN TEST CASE
! **** DEFAULT IN DSS IS .95, BELOW WHICH IT REVERTS TO LINEAR MODEL
~ vminpu=0.75    ! model will remain const p,q down to 0.75 pu voltage   

set voltagebases=[12.47, 4.16]  
calcvoltagebases      ! **** let DSS compute voltage bases

! Medicao de energia da linha 1 (melhor para medir a energia que entra)
New EnergyMeter.SubstationMeter Element=line.line1 Terminal=1

! Adiciona um monitor na linha que alimenta a carga
New Monitor.CargaMonitor Element=Line.line2 Terminal=1 Mode=1 ppolar=no

! Adiciona um outro medidor de energia na linha 2 que mede a baixa tensao
new EnergyMeter.LoadBusMeter Element=Line.line2 Terminal=1

solve

! gravação de V/I/P/Q dos monitores
Sample

! Ferramenta para salvar os dados coletados em arquivos
Export Meters SubstationMeter C:\Caminho\Para\Sua\Pasta\SubstationMeter.csv
Export Monitors CargaMonitor C:\Caminho\Para\Sua\Pasta\CargaMonitor.csv
Export Meters LoadBusMeter C:\Caminho\Para\Sua\Pasta\LoadBusMeter.csv


! Various reports ...
//Show Voltage  LL Nodes
//show voltages LN Nodes 
//show currents resid=yes elements  ! this shows sum of phase currents
//Show Powers kva Elements